%chk=bnhbc.nicsa.chk
# nmr=giao b3lyp/6-311+g(2d,p)

bnhbc

0 1
 C                 -1.39796400    0.05952100   -0.00002100
 C                  2.83931900    2.35476800   -0.49932100
 C                  3.34703200    3.50564600   -1.12655400
 H                  2.72427400    4.38249100   -1.23625400
 C                  4.63485800    3.51770700   -1.63745900
 H                  5.00018200    4.41250400   -2.12913600
 C                  5.44495900    2.38248100   -1.54995800
 H                  6.44922200    2.39304300   -1.95764900
 C                  4.93052200    1.23389200   -0.97331400
 H                  5.53193600    0.33235700   -0.96282600
 C                  3.62550500    1.17758500   -0.44185300
 C                  0.92637700    3.57049500    0.49907900
 C                 -0.47323200    3.78243800    0.44194600
 C                 -0.97631800    4.98767300    0.97388600
 H                 -2.04792100    5.14923300    0.96375500
 C                 -0.15473400    5.94108400    1.55047000
 H                 -0.57152200    6.85469900    1.95846800
 C                  1.21712800    5.68980700    1.63732700
 H                  1.87227200    6.40049100    2.12883900
 C                  1.75293600    4.51883200    1.12606400
 H                  2.81130000    4.32736800    1.23536800
 C                 -2.83263100    2.55105700   -0.44176600
 C                 -3.45890800    1.28157400   -0.49922800
 C                 -4.70944800    1.14569700   -1.12641400
 H                 -5.15744600    0.16793000   -1.23594000
 C                 -5.36379900    2.25484300   -1.63756200
 H                 -6.32132400    2.12371100   -2.12931300
 C                 -4.78577400    3.52406200   -1.55018200
 H                 -5.29707300    4.38842700   -1.95799600
 C                 -3.53395600    3.65300900   -0.97331000
 H                 -3.05409200    4.62471600   -0.96272300
 C                  1.42748900   -0.06075700   -0.00001600
 C                 -3.03921500   -2.30101800    0.44172600
 C                 -3.83170400   -3.33941900    0.97312800
 H                 -3.43614100   -4.34838800    0.96248800
 C                 -5.06805000   -3.10457300    1.54996200
 H                 -5.65099000   -3.92236100    1.95772400
 C                 -5.53606500   -1.79080900    1.63745600
 H                 -6.47898900   -1.57878900    2.12920200
 C                 -4.78982200   -0.74126300    1.12636700
 H                 -5.15307300    0.27103700    1.23595800
 C                 -3.55535000   -0.98290900    0.49916400
 C                 -0.79300100   -3.72855600   -0.44177700
 C                  0.61954800   -3.63630300   -0.49901400
 C                  1.36251100   -4.65153500   -1.12589100
 H                  2.43332000   -4.55072700   -1.23517200
 C                  0.72910400   -5.77279200   -1.63701400
 H                  1.32145900   -6.53664700   -2.12845500
 C                 -0.65914600   -5.90656500   -1.55009300
 H                 -1.15208600   -6.78150000   -1.95797500
 C                 -1.39670900   -4.88673900   -0.97354300
 H                 -2.47816200   -4.95667900   -0.96327000
 C                  2.62892200   -2.58751600    0.49929600
 C                  3.51230400   -1.48140600    0.44182900
 C                  4.80785200   -1.64841400    0.97320900
 H                  5.48371300   -0.80125700    0.96265800
 C                  5.22284200   -2.83657900    1.54981000
 H                  6.22259300   -2.93246600    1.95745200
 C                  4.31921500   -3.89888100    1.63724600
 H                  4.60720700   -4.82152800    2.12882900
 C                  3.03706000   -3.77743300    1.12637000
 H                  2.34210300   -4.59825400    1.23597100
 C                 -0.76641000   -1.20589000    0.00011500
 C                  0.75049800    1.18092900   -0.00012100
 B                 -1.35814000    2.60201500   -0.00002200
 C                  0.64740700   -1.24040800    0.00011900
 C                 -0.66114500    1.26668000   -0.00014700
 B                  2.93239600   -0.12482400   -0.00001100
 B                 -1.57438300   -2.47714800    0.00006500
 N                  1.50103500    2.36184000   -0.00009300
 N                 -2.79592200    0.11903100   -0.00004400
 N                  1.29486400   -2.48083100    0.00010600
 Bq               -0.00002083    0.00001250    -0.00001183
 Bq               -0.00002113    0.00011513    0.99998816
 Bq               -0.00002053    -0.00009013    -1.00001183
 Bq               -2.18820733    -1.13140217    0.15683417
 Bq               -2.01500367    -1.06228493    1.13929195
 Bq               -2.36141100    -1.20051941    -0.82562362
 Bq               -2.08411833    1.31331300    -0.15687133
 Bq               -2.25084338    1.39687526    0.82558483
 Bq               -1.91739328    1.22975074    -1.13932749
 Bq               -0.09532917    -2.46152267    -0.15673100
 Bq               -0.08436327    -2.64773437    0.82571745
 Bq               -0.10629506    -2.27531097    -1.13917945
 Bq               0.11423217    2.46073283    0.15677367
 Bq               0.08749134    2.27607227    1.13921217
 Bq               0.14097299    2.64539339    -0.82566483
 Bq               4.13703250    2.36201317    -1.03807650
 Bq               4.48895571    2.66478951    -0.15236970
 Bq               3.78510929    2.05923682    -1.92378330
 Bq               2.17937367    1.14825683    -0.15690250
 Bq               2.33512211    1.25091606    0.82554521
 Bq               2.02362522    1.04559760    -1.13935021
 Bq               2.07389700    -1.32929033    0.15688717
 Bq               1.92744529    -1.21375748    1.13933516
 Bq               2.22034871    -1.44482319    -0.82556083
 Bq               0.38202617    4.74838817    1.03812867
 Bq               0.25767081    4.30103622    1.92379902
 Bq               0.50638152    5.19574011    0.15245831
 Bq               -4.11408600    2.40170700    -1.03807700
 Bq               -4.55234436    2.55515009    -0.15242197
 Bq               -3.67582764    2.24826391    -1.92373203
 Bq               -4.30336767    -2.04333183    1.03796717
 Bq               -3.85367973    -1.92774767    1.92364265
 Bq               -4.75305561    -2.15891600    0.15229169
 Bq               -0.02294883    -4.76374833    -1.03788867
 Bq               0.06298844    -5.21995345    -0.15217332
 Bq               -0.10888611    -4.30754321    -1.92360401
 Bq               3.92136583    -2.70503817    1.03796000
 Bq               3.59647494    -2.37351237    1.92370068
 Bq               4.24625673    -3.03656396    0.15221932

